$
SOL 101
CEND
$
TITLE = FEX
ECHO = NONE
$
$ Output request
$ --------------
DISPLACEMENT(PLOT,SORT1,REAL)=ALL
SPCFORCES(PLOT,SORT1,REAL)=ALL
MPCFORCES(PLOT,SORT1,REAL)=ALL
STRESS(PLOT,SORT1,REAL,VONMISES,CENTER)=ALL
$
$ Load case definition
$ --------------------
SPC = 1
LOAD = 1
BEGIN BULK
$
$ Parameters
$ ----------
PARAM   POST    -1
PARAM   AUTOSPC NO
PARAM   PRTMAXIM YES
PARAM   SNORM   20.
PARAM   BAILOUT 0
PARAM   K6ROT   1.
PARAM   MAXRATIO 1.e+7
PARAM   GRDPNT  0
$
$ Bulk loading
$ ------------
$
GRID           1        70.0    100.0   40.0                            
GRID           2        70.0    100.0   35.0                            
GRID           3        70.0    100.0   30.0                            
GRID           4        70.0    100.0   25.0                            
GRID           5        70.0    100.0   20.0                            
GRID           6        70.0    100.0   15.0                            
GRID           7        70.0    100.0   10.0                            
GRID           8        70.0    100.0   5.0                             
GRID          14        50.0    100.0   5.0                             
GRID          15        50.0    100.0   10.0                            
GRID          16        50.0    100.0   15.0                            
GRID          17        50.0    100.0   20.0                            
GRID          18        50.0    100.0   25.0                            
GRID          19        50.0    100.0   30.0                            
GRID          20        50.0    100.0   35.0                            
GRID          21        50.0    100.0   40.0                            
GRID          22        50.0    100.0   45.0                            
GRID          23        50.0    100.0   50.0                            
GRID          24        50.0    100.0   55.0                            
GRID          25        50.0    100.0   60.0                            
$ ... 3263 like lines cut
CBEAM      13199       6     543     2940.0     1.0     0.0             
CBEAM      13200       6     531     2900.0     1.0     0.0             
CBEAM      13201       6     556      970.0     1.0     0.0             
CBEAM      13202       6     568     1010.0     1.0     0.0             
CONM2      13216   10294       00.2     0.0     0.0     0.0             
CONM2      13215   10293       00.2     0.0     0.0     0.0             
CONM2      13214   10292       00.2     0.0     0.0     0.0             
CONM2      13213   10291       00.2     0.0     0.0     0.0             
CONM2      13212   10288       00.2     0.0     0.0     0.0             
CONM2      13211   10290       00.2     0.0     0.0     0.0             
CONM2      13210   10289       00.2     0.0     0.0     0.0             
RBE3       13208           10293  1234561.0          123     895     896+       
+            897     898     899     900     901     902     903    1001+       
+           1002    1003    1004    1005    1006    2257    2258    2259+       
+           2260    2261
RBE3       13207           10292  1234561.0          123     940     941+       
+            942     943     944     945     946    1031    1032    1033+       
+           1034    1035    1036    2284    2285    2286    2287    2288+       
+           2289    2290
RBE3       13206           10291  1234561.0          123     936     950+       
+            951     952     953     954     955    1040    1041    1042+       
+           1043    1044    1045    2277    2278    2279    2280    2281+       
+           2282    2283
RBE3       13209           10294  1234561.0          123     846     847+       
+            848     849     850     851     852     853     854     973+       
+            976    1061    1062    1063    1064    1065   10060   10084+       
+          10059   10083
RBE3       13205           10290  1234561.0          123     783     784+       
+            785     786     787     788     789     790     791     819+       
+            820     821     822     823     824    2314    2315    2316+       
+           2317    2318
RBE3       13204           10289  1234561.0          123     858     859+       
+            860     861     862     863     864     865     866     980+       
+            981     982     983     984     985    1066    1067    1068+       
+           1069    1070
RBE3       13203           10288  1234561.0          123     891     907+       
+            908     909     910     911     912     913     914    1010+       
+           1011    1012    1013    1014    1015    2252    2253    2254+       
+           2255    2256
CTRIA3     13082       3    9828   10233    9829                
CTRIA3     13017       3   10126   10127   10192                
CTRIA3     13006       3     816   10126    1717                
CTRIA3     13093       3    1713    1749    9827                
CTRIA3     13088       3    9827   10238    9828                
CTRIA3     13198       1     817     816   10280                
CTRIA3     13197       1    1959   10276    1713                
CTRIA3     13007       3   10127   10128   10197                
CQUAD4      7889       1      56    6562    6564      55                
CQUAD4      7886       1      57      58    6562      56                
CQUAD4      7884       1    6562    6560    6563    6564                
CQUAD4      7881       1      58      59    6560    6562                
CQUAD4      7879       1    6560    6556    6559    6563                
CQUAD4      7877       1    6556    6553    6555    6559                
CQUAD4      7876       1      59      60    6556    6560                
CQUAD4      7874       1    6552    6555    6553    6550                
CQUAD4      7873       1      60      61    6553    6556                
CQUAD4      7870       1    6550    6553      61      62                
CQUAD4      7869       1    6549    6552    6550    6548                
CQUAD4      7866       1    6548    6550      62      63                
CQUAD4      7864       1    6547    6549    6548    6543                
CQUAD4      7863       1    6542      92      93      94                
CQUAD4      7861       1    6543    6548      63      64                
CQUAD4      7860       1    6544    6547    6543    6541                
CQUAD4      7859       1    6537    6542      94      95                
CQUAD4      7858       1    6538      91      92    6542                
CQUAD4      7855       1    6539    6544    6541    6533                
CQUAD4      7853       1    6534    6537      95      96                
$ ... 2886 like lines cut
CHEXA      13460       5    1475    1484   10609   10600   10687   10691+       
+          10675   10673
CHEXA      13459       5   10604     550     552   10606   10649   10713+       
+          10646   10643
CHEXA      13458       5   10583   10602    1894    1875   10705   10669+       
+          10670   10711
CHEXA      13457       5   10584   10601   10602   10583   10706   10714+       
+          10669   10705
CHEXA      13456       5   10596   10585   10584   10592   10640   10641+       
+          10706   10704
CHEXA      13455       5   10601   10599   10598   10602   10714   10674+       
+          10672   10669
CHEXA      13454       5    1430    1466   10591   10555   10634   10692+       
+          10693   10633
CHEXA      13453       5   10589   10587   10586   10590   10681   10665+       
+          10666   10680
CHEXA      13452       5   10556   10575    1867    1848   10652   10708+       
+          10709   10696
CHEXA      13451       5   10557   10574   10575   10556   10653   10655+       
+          10708   10652
CHEXA      13450       5   10609   10608   10604   10605   10675   10660+       
+          10649   10647
CHEXA      13449       5   10585   10603   10601   10584   10641   10686+       
+          10714   10706
CHEXA      13448       5    1460    1478   10603   10585   10642   10685+       
+          10686   10641
CHEXA      13447       5   10597   10596   10592   10593   10657   10640+       
+          10704   10668
CHEXA      13446       5   10581   10555   10554   10577   10632   10633+       
+          10678   10700
CHEXA      13445       5   10579   10553    1845    1871   10701   10679+       
+          10712   10703
CHEXA      13444       5   10570   10569   10565   10566   10625   10676+       
+          10650   10663
CHEXA      13443       5   10569   10558   10557   10565   10676   10698+       
+          10653   10650
CHEXA      13442       5   10603   10600   10599   10601   10686   10673+       
+          10674   10714
CHEXA      13441       5   10571   10580    1872    1863   10628   10629+       
+          10702   10710
$ ... 280 like lines cut
PSHELL         1       11.4            1               1                
PSHELL         2       22.0            2               2                
PSHELL         3       12.0            1               1                
PSHELL         4       14.0            1               1                
PSOLID         5       1                                        
PBEAML         6       3             ROD                                +       
+       1.3     0.0     
$
MAT1     1      69000.  25939.9 .33     2.827-3
MAT1     2      65500.  24624.1 .33     2.9-3
MAT1     3      69000.  24624.1 .33     2.8637-3
$
SPC            1   10504  1234560.0     
SPC            1   10502  1234560.0     
SPC            1   10500  1234560.0     
SPC            1   10498  1234560.0     
SPC            1   10496  1234560.0     
SPC            1   10490  1234560.0     
SPC            1   10494  1234560.0     
SPC            1   10492  1234560.0     
SPC            1   10486  1234560.0     
SPC            1   10488  1234560.0     
SPC            1   10448  1234560.0     
SPC            1   10450  1234560.0     
SPC            1   10452  1234560.0     
SPC            1   10454  1234560.0     
SPC            1   10458  1234560.0     
SPC            1   10456  1234560.0     
SPC            1   10460  1234560.0     
SPC            1   10462  1234560.0     
SPC            1   10464  1234560.0     
SPC            1   10430  1234560.0     
$ ... 85 like lines cut
$
FORCE          1   10662       01.0     0.0     0.0     -1.0    
FORCE          1   10618       01.0     0.0     0.0     -3.0    
FORCE          1   10645       01.0     0.0     0.0     -3.0    
FORCE          1   10623       01.0     0.0     0.0     -1.0    
ENDDATA
